Circuit: * C:\Users\subha\OneDrive\Documents\GitHub\PMIC_Final_Project_Fall_Buck_Converter\Behavioral_Schematic.asc

Ignoring BSIM parameter XL
Ignoring BSIM parameter XW
Ignoring BSIM parameter XL
Ignoring BSIM parameter XW
C1: Increased Cpar to 4.7e-011
Warning: Pd = 0 is less than W.
Warning: Ps = 0 is less than W.
Warning: Pd = 0 is less than W.
Warning: Ps = 0 is less than W.
Direct Newton iteration failed to find .op point.  (Use ".option noopiter" to skip.)
Starting Gmin stepping
Gmin = 10
Gmin = 1.07374
vernier = 0.5
vernier = 0.25
vernier = 0.125
vernier = 0.0625
Gmin = 0.995033
vernier = 0.03125
vernier = 0.015625
vernier = 0.0078125
vernier = 0.00390625
vernier = 0.00195313
vernier = 0.000976563
vernier = 0.000488281
Gmin = 0
Gmin stepping failed

Starting source stepping with srcstepmethod=0
Source Step = 3.0303%
Source Step = 33.3333%
Source Step = 63.6364%
Source Step = 93.9394%
Source stepping succeeded in finding the operating point.

Heightened Def Con from 5.518e-005 to 5.518e-005

Date: Sat Oct 20 11:44:16 2018
Total elapsed time: 133.935 seconds.

tnom = 27
temp = 27
method = modified trap
totiter = 5779989
traniter = 5778362
tranpoints = 1794973
accept = 1200126
rejected = 594848
matrix size = 18
fillins = 0
solver = Normal
Matrix Compiler1: 494 bytes object code size  0.6/0.5/[0.4]
Matrix Compiler2: 966 bytes object code size  0.4/0.7/[0.4]

