Circuit: * C:\Users\subha\OneDrive\Documents\GitHub\PMIC_Final_Project_Fall_Buck_Converter\Buck_Regulator_Schematic.asc

Questionable use of curly braces in ".model pnp_v50x50_mm pnp level = 1 is = {5.6e-18*dis_pnp_v50x50_mm} bf = {1.38*dbf_pnp_v50x50_mm} nf = {1.034*dnf_pnp_v50x50_mm} vaf = 785 ikf = 0.0021 ise = 1e-20 ne = 1.049 br = 0.00013 nr = 1.02 var = 55 ikr = 0.0021 isc = 1.05e-12 nc = 1.44 rb = 266.4 irb = 2.3e-05 rbm = 59.48 re = {0.001*dre_pnp_v50x50_mm} rc = {0.12*drc_pnp_v50x50_mm} tlevc = 1 xtb = 1.48 eg = 1.17 xti = 2.38 trb1 = 0.0035 cje = {2.85e-14*dcje_pnp_v50x50_mm} vje = 0.762 mje = 0.395 cjc = {2.81e-14*dcjc_pnp_v50x50_mm} vjc = 0.458 mjc = 0.75 fc = 0.5 trm1 = 0.0035 trm2 = 0"
    Error: undefined symbol in: "5.6e-18*[dis_pnp_v50x50_mm]"
Questionable use of curly braces in ".model pnp_v50x50_mm pnp level = 1 is = (5.6e-18*dis_pnp_v50x50_mm) bf = {1.38*dbf_pnp_v50x50_mm} nf = {1.034*dnf_pnp_v50x50_mm} vaf = 785 ikf = 0.0021 ise = 1e-20 ne = 1.049 br = 0.00013 nr = 1.02 var = 55 ikr = 0.0021 isc = 1.05e-12 nc = 1.44 rb = 266.4 irb = 2.3e-05 rbm = 59.48 re = {0.001*dre_pnp_v50x50_mm} rc = {0.12*drc_pnp_v50x50_mm} tlevc = 1 xtb = 1.48 eg = 1.17 xti = 2.38 trb1 = 0.0035 cje = {2.85e-14*dcje_pnp_v50x50_mm} vje = 0.762 mje = 0.395 cjc = {2.81e-14*dcjc_pnp_v50x50_mm} vjc = 0.458 mjc = 0.75 fc = 0.5 trm1 = 0.0035 trm2 = 0"
    Error: undefined symbol in: "1.38*[dbf_pnp_v50x50_mm]"
Questionable use of curly braces in ".model pnp_v50x50_mm pnp level = 1 is = (5.6e-18*dis_pnp_v50x50_mm) bf = (1.38*dbf_pnp_v50x50_mm) nf = {1.034*dnf_pnp_v50x50_mm} vaf = 785 ikf = 0.0021 ise = 1e-20 ne = 1.049 br = 0.00013 nr = 1.02 var = 55 ikr = 0.0021 isc = 1.05e-12 nc = 1.44 rb = 266.4 irb = 2.3e-05 rbm = 59.48 re = {0.001*dre_pnp_v50x50_mm} rc = {0.12*drc_pnp_v50x50_mm} tlevc = 1 xtb = 1.48 eg = 1.17 xti = 2.38 trb1 = 0.0035 cje = {2.85e-14*dcje_pnp_v50x50_mm} vje = 0.762 mje = 0.395 cjc = {2.81e-14*dcjc_pnp_v50x50_mm} vjc = 0.458 mjc = 0.75 fc = 0.5 trm1 = 0.0035 trm2 = 0"
    Error: undefined symbol in: "1.034*[dnf_pnp_v50x50_mm]"
Questionable use of curly braces in ".model pnp_v50x50_mm pnp level = 1 is = (5.6e-18*dis_pnp_v50x50_mm) bf = (1.38*dbf_pnp_v50x50_mm) nf = (1.034*dnf_pnp_v50x50_mm) vaf = 785 ikf = 0.0021 ise = 1e-20 ne = 1.049 br = 0.00013 nr = 1.02 var = 55 ikr = 0.0021 isc = 1.05e-12 nc = 1.44 rb = 266.4 irb = 2.3e-05 rbm = 59.48 re = {0.001*dre_pnp_v50x50_mm} rc = {0.12*drc_pnp_v50x50_mm} tlevc = 1 xtb = 1.48 eg = 1.17 xti = 2.38 trb1 = 0.0035 cje = {2.85e-14*dcje_pnp_v50x50_mm} vje = 0.762 mje = 0.395 cjc = {2.81e-14*dcjc_pnp_v50x50_mm} vjc = 0.458 mjc = 0.75 fc = 0.5 trm1 = 0.0035 trm2 = 0"
    Error: undefined symbol in: "0.001*[dre_pnp_v50x50_mm]"
Questionable use of curly braces in ".model pnp_v50x50_mm pnp level = 1 is = (5.6e-18*dis_pnp_v50x50_mm) bf = (1.38*dbf_pnp_v50x50_mm) nf = (1.034*dnf_pnp_v50x50_mm) vaf = 785 ikf = 0.0021 ise = 1e-20 ne = 1.049 br = 0.00013 nr = 1.02 var = 55 ikr = 0.0021 isc = 1.05e-12 nc = 1.44 rb = 266.4 irb = 2.3e-05 rbm = 59.48 re = (0.001*dre_pnp_v50x50_mm) rc = {0.12*drc_pnp_v50x50_mm} tlevc = 1 xtb = 1.48 eg = 1.17 xti = 2.38 trb1 = 0.0035 cje = {2.85e-14*dcje_pnp_v50x50_mm} vje = 0.762 mje = 0.395 cjc = {2.81e-14*dcjc_pnp_v50x50_mm} vjc = 0.458 mjc = 0.75 fc = 0.5 trm1 = 0.0035 trm2 = 0"
    Error: undefined symbol in: "0.12*[drc_pnp_v50x50_mm]"
Questionable use of curly braces in ".model pnp_v50x50_mm pnp level = 1 is = (5.6e-18*dis_pnp_v50x50_mm) bf = (1.38*dbf_pnp_v50x50_mm) nf = (1.034*dnf_pnp_v50x50_mm) vaf = 785 ikf = 0.0021 ise = 1e-20 ne = 1.049 br = 0.00013 nr = 1.02 var = 55 ikr = 0.0021 isc = 1.05e-12 nc = 1.44 rb = 266.4 irb = 2.3e-05 rbm = 59.48 re = (0.001*dre_pnp_v50x50_mm) rc = (0.12*drc_pnp_v50x50_mm) tlevc = 1 xtb = 1.48 eg = 1.17 xti = 2.38 trb1 = 0.0035 cje = {2.85e-14*dcje_pnp_v50x50_mm} vje = 0.762 mje = 0.395 cjc = {2.81e-14*dcjc_pnp_v50x50_mm} vjc = 0.458 mjc = 0.75 fc = 0.5 trm1 = 0.0035 trm2 = 0"
    Error: undefined symbol in: "2.85e-14*[dcje_pnp_v50x50_mm]"
Questionable use of curly braces in ".model pnp_v50x50_mm pnp level = 1 is = (5.6e-18*dis_pnp_v50x50_mm) bf = (1.38*dbf_pnp_v50x50_mm) nf = (1.034*dnf_pnp_v50x50_mm) vaf = 785 ikf = 0.0021 ise = 1e-20 ne = 1.049 br = 0.00013 nr = 1.02 var = 55 ikr = 0.0021 isc = 1.05e-12 nc = 1.44 rb = 266.4 irb = 2.3e-05 rbm = 59.48 re = (0.001*dre_pnp_v50x50_mm) rc = (0.12*drc_pnp_v50x50_mm) tlevc = 1 xtb = 1.48 eg = 1.17 xti = 2.38 trb1 = 0.0035 cje = (2.85e-14*dcje_pnp_v50x50_mm) vje = 0.762 mje = 0.395 cjc = {2.81e-14*dcjc_pnp_v50x50_mm} vjc = 0.458 mjc = 0.75 fc = 0.5 trm1 = 0.0035 trm2 = 0"
    Error: undefined symbol in: "2.81e-14*[dcjc_pnp_v50x50_mm]"
Questionable use of curly braces in ".model pnp_v100x100_mm pnp level = 1 is = {2.8e-17*dis_pnp_v100x100_mm} bf = {1.36*dbf_pnp_v100x100_mm} nf = {1.054*dnf_pnp_v100x100_mm} vaf = 785 ikf = 0.005 ise = 1.1e-18 ne = 1.049 br = 0.00063 nr = 1.06 var = 55 ikr = 0.027 isc = 1.95e-12 nc = 1.44 rb = 66.4 irb = 1e-06 rbm = 59.48 re = {0.001*dre_pnp_v100x100_mm} rc = {0.12*drc_pnp_v100x100_mm} tlevc = 1 xtb = 1.298 eg = 1.17 xti = 1.98 trb1 = 0.004 tre1 = 0.001 cje = {1.14e-13*dcje_pnp_v100x100_mm} vje = 0.762 mje = 0.395 cjc = {4.81e-14*dcjc_pnp_v100x100_mm} vjc = 0.458 mjc = 0.75 fc = 0.5 trm1 = 0.004 trm2 = 0"
    Error: undefined symbol in: "2.8e-17*[dis_pnp_v100x100_mm]"
Questionable use of curly braces in ".model pnp_v100x100_mm pnp level = 1 is = (2.8e-17*dis_pnp_v100x100_mm) bf = {1.36*dbf_pnp_v100x100_mm} nf = {1.054*dnf_pnp_v100x100_mm} vaf = 785 ikf = 0.005 ise = 1.1e-18 ne = 1.049 br = 0.00063 nr = 1.06 var = 55 ikr = 0.027 isc = 1.95e-12 nc = 1.44 rb = 66.4 irb = 1e-06 rbm = 59.48 re = {0.001*dre_pnp_v100x100_mm} rc = {0.12*drc_pnp_v100x100_mm} tlevc = 1 xtb = 1.298 eg = 1.17 xti = 1.98 trb1 = 0.004 tre1 = 0.001 cje = {1.14e-13*dcje_pnp_v100x100_mm} vje = 0.762 mje = 0.395 cjc = {4.81e-14*dcjc_pnp_v100x100_mm} vjc = 0.458 mjc = 0.75 fc = 0.5 trm1 = 0.004 trm2 = 0"
    Error: undefined symbol in: "1.36*[dbf_pnp_v100x100_mm]"
Questionable use of curly braces in ".model pnp_v100x100_mm pnp level = 1 is = (2.8e-17*dis_pnp_v100x100_mm) bf = (1.36*dbf_pnp_v100x100_mm) nf = {1.054*dnf_pnp_v100x100_mm} vaf = 785 ikf = 0.005 ise = 1.1e-18 ne = 1.049 br = 0.00063 nr = 1.06 var = 55 ikr = 0.027 isc = 1.95e-12 nc = 1.44 rb = 66.4 irb = 1e-06 rbm = 59.48 re = {0.001*dre_pnp_v100x100_mm} rc = {0.12*drc_pnp_v100x100_mm} tlevc = 1 xtb = 1.298 eg = 1.17 xti = 1.98 trb1 = 0.004 tre1 = 0.001 cje = {1.14e-13*dcje_pnp_v100x100_mm} vje = 0.762 mje = 0.395 cjc = {4.81e-14*dcjc_pnp_v100x100_mm} vjc = 0.458 mjc = 0.75 fc = 0.5 trm1 = 0.004 trm2 = 0"
    Error: undefined symbol in: "1.054*[dnf_pnp_v100x100_mm]"
Questionable use of curly braces in ".model pnp_v100x100_mm pnp level = 1 is = (2.8e-17*dis_pnp_v100x100_mm) bf = (1.36*dbf_pnp_v100x100_mm) nf = (1.054*dnf_pnp_v100x100_mm) vaf = 785 ikf = 0.005 ise = 1.1e-18 ne = 1.049 br = 0.00063 nr = 1.06 var = 55 ikr = 0.027 isc = 1.95e-12 nc = 1.44 rb = 66.4 irb = 1e-06 rbm = 59.48 re = {0.001*dre_pnp_v100x100_mm} rc = {0.12*drc_pnp_v100x100_mm} tlevc = 1 xtb = 1.298 eg = 1.17 xti = 1.98 trb1 = 0.004 tre1 = 0.001 cje = {1.14e-13*dcje_pnp_v100x100_mm} vje = 0.762 mje = 0.395 cjc = {4.81e-14*dcjc_pnp_v100x100_mm} vjc = 0.458 mjc = 0.75 fc = 0.5 trm1 = 0.004 trm2 = 0"
    Error: undefined symbol in: "0.001*[dre_pnp_v100x100_mm]"
Questionable use of curly braces in ".model pnp_v100x100_mm pnp level = 1 is = (2.8e-17*dis_pnp_v100x100_mm) bf = (1.36*dbf_pnp_v100x100_mm) nf = (1.054*dnf_pnp_v100x100_mm) vaf = 785 ikf = 0.005 ise = 1.1e-18 ne = 1.049 br = 0.00063 nr = 1.06 var = 55 ikr = 0.027 isc = 1.95e-12 nc = 1.44 rb = 66.4 irb = 1e-06 rbm = 59.48 re = (0.001*dre_pnp_v100x100_mm) rc = {0.12*drc_pnp_v100x100_mm} tlevc = 1 xtb = 1.298 eg = 1.17 xti = 1.98 trb1 = 0.004 tre1 = 0.001 cje = {1.14e-13*dcje_pnp_v100x100_mm} vje = 0.762 mje = 0.395 cjc = {4.81e-14*dcjc_pnp_v100x100_mm} vjc = 0.458 mjc = 0.75 fc = 0.5 trm1 = 0.004 trm2 = 0"
    Error: undefined symbol in: "0.12*[drc_pnp_v100x100_mm]"
Questionable use of curly braces in ".model pnp_v100x100_mm pnp level = 1 is = (2.8e-17*dis_pnp_v100x100_mm) bf = (1.36*dbf_pnp_v100x100_mm) nf = (1.054*dnf_pnp_v100x100_mm) vaf = 785 ikf = 0.005 ise = 1.1e-18 ne = 1.049 br = 0.00063 nr = 1.06 var = 55 ikr = 0.027 isc = 1.95e-12 nc = 1.44 rb = 66.4 irb = 1e-06 rbm = 59.48 re = (0.001*dre_pnp_v100x100_mm) rc = (0.12*drc_pnp_v100x100_mm) tlevc = 1 xtb = 1.298 eg = 1.17 xti = 1.98 trb1 = 0.004 tre1 = 0.001 cje = {1.14e-13*dcje_pnp_v100x100_mm} vje = 0.762 mje = 0.395 cjc = {4.81e-14*dcjc_pnp_v100x100_mm} vjc = 0.458 mjc = 0.75 fc = 0.5 trm1 = 0.004 trm2 = 0"
    Error: undefined symbol in: "1.14e-13*[dcje_pnp_v100x100_mm]"
Questionable use of curly braces in ".model pnp_v100x100_mm pnp level = 1 is = (2.8e-17*dis_pnp_v100x100_mm) bf = (1.36*dbf_pnp_v100x100_mm) nf = (1.054*dnf_pnp_v100x100_mm) vaf = 785 ikf = 0.005 ise = 1.1e-18 ne = 1.049 br = 0.00063 nr = 1.06 var = 55 ikr = 0.027 isc = 1.95e-12 nc = 1.44 rb = 66.4 irb = 1e-06 rbm = 59.48 re = (0.001*dre_pnp_v100x100_mm) rc = (0.12*drc_pnp_v100x100_mm) tlevc = 1 xtb = 1.298 eg = 1.17 xti = 1.98 trb1 = 0.004 tre1 = 0.001 cje = (1.14e-13*dcje_pnp_v100x100_mm) vje = 0.762 mje = 0.395 cjc = {4.81e-14*dcjc_pnp_v100x100_mm} vjc = 0.458 mjc = 0.75 fc = 0.5 trm1 = 0.004 trm2 = 0"
    Error: undefined symbol in: "4.81e-14*[dcjc_pnp_v100x100_mm]"
Ignoring BSIM parameter XL
Ignoring BSIM parameter XW
Ignoring BSIM parameter XL
Ignoring BSIM parameter XW
Ignoring BSIM parameter XL
Ignoring BSIM parameter XW
Ignoring BSIM parameter XL
Ignoring BSIM parameter XW
Ignoring BSIM parameter XL
Ignoring BSIM parameter XW
Ignoring BSIM parameter XL
Ignoring BSIM parameter XW
Ignoring BSIM parameter XL
Ignoring BSIM parameter XW
Ignoring BSIM parameter XL
Ignoring BSIM parameter XW
Ignoring BSIM parameter XL
Ignoring BSIM parameter XW
Ignoring BSIM parameter XL
Ignoring BSIM parameter XW
Error on line 168 : .model x4:pnp_v50x50_mm pnp level = 1 is = (5.6e-18*dis_pnp_v50x50_mm) bf = (1.38*dbf_pnp_v50x50_mm) nf = (1.034*dnf_pnp_v50x50_mm) vaf = 785 ikf = 0.0021 ise = 1e-20 ne = 1.049 br = 0.00013 nr = 1.02 var = 55 ikr = 0.0021 isc = 1.05e-12 nc = 1.44 rb = 266.4 irb = 2.3e-05 rbm = 59.48 re = (0.001*dre_pnp_v50x50_mm) rc = (0.12*drc_pnp_v50x50_mm) tlevc = 1 xtb = 1.48 eg = 1.17 xti = 2.38 trb1 = 0.0035 cje = (2.85e-14*dcje_pnp_v50x50_mm) vje = 0.762 mje = 0.395 cjc = (2.81e-14*dcjc_pnp_v50x50_mm) vjc = 0.458 mjc = 0.75 fc = 0.5 trm1 = 0.0035 trm2 = 0
	* Unrecognized parameter "*dis_pnp_v50x50_mm" -- ignored
	* Unrecognized parameter "*dbf_pnp_v50x50_mm" -- ignored
	* Unrecognized parameter "*dnf_pnp_v50x50_mm" -- ignored
	* Unrecognized parameter "*dre_pnp_v50x50_mm" -- ignored
	* Unrecognized parameter "*drc_pnp_v50x50_mm" -- ignored
	* Unrecognized parameter "tlevc" -- ignored
	* Unrecognized parameter "*dcje_pnp_v50x50_mm" -- ignored
	* Unrecognized parameter "*dcjc_pnp_v50x50_mm" -- ignored
C7: Increased Cpar to 2.2e-012
C2: Increased Cpar to 2.2e-012
C1: Increased Cpar to 2.2e-012
C4: Increased Cpar to 2.2e-012
C3: Increased Cpar to 2.2e-012
Warning: Pd = 0 is less than W.
Warning: Ps = 0 is less than W.
Warning: Pd = 0 is less than W.
Warning: Ps = 0 is less than W.
Warning: Pd = 0 is less than W.
Warning: Ps = 0 is less than W.
Warning: Pd = 0 is less than W.
Warning: Ps = 0 is less than W.
Warning: Pd = 0 is less than W.
Warning: Ps = 0 is less than W.
Warning: Pd = 0 is less than W.
Warning: Ps = 0 is less than W.
Warning: Pd = 0 is less than W.
Warning: Ps = 0 is less than W.
Warning: Pd = 0 is less than W.
Warning: Ps = 0 is less than W.
Warning: Pd = 0 is less than W.
Warning: Ps = 0 is less than W.
Warning: Pd = 0 is less than W.
Warning: Ps = 0 is less than W.
Warning: Pd = 0 is less than W.
Warning: Ps = 0 is less than W.
Warning: Pd = 0 is less than W.
Warning: Ps = 0 is less than W.
Warning: Pd = 0 is less than W.
Warning: Ps = 0 is less than W.
Warning: Pd = 0 is less than W.
Warning: Ps = 0 is less than W.
Warning: Pd = 0 is less than W.
Warning: Ps = 0 is less than W.
Warning: Pd = 0 is less than W.
Warning: Ps = 0 is less than W.
Warning: Pd = 0 is less than W.
Warning: Ps = 0 is less than W.
Warning: Pd = 0 is less than W.
Warning: Ps = 0 is less than W.
Warning: Pd = 0 is less than W.
Warning: Ps = 0 is less than W.
Warning: Pd = 0 is less than W.
Warning: Ps = 0 is less than W.
Warning: Pd = 0 is less than W.
Warning: Ps = 0 is less than W.
Warning: Pd = 0 is less than W.
Warning: Ps = 0 is less than W.
Warning: Pd = 0 is less than W.
Warning: Ps = 0 is less than W.
Warning: Pd = 0 is less than W.
Warning: Ps = 0 is less than W.
Warning: Pd = 0 is less than W.
Warning: Ps = 0 is less than W.
Warning: Pd = 0 is less than W.
Warning: Ps = 0 is less than W.
Warning: Pd = 0 is less than W.
Warning: Ps = 0 is less than W.
Warning: Pd = 0 is less than W.
Warning: Ps = 0 is less than W.
Direct Newton iteration for .op point succeeded.
Heightened Def Con from 0.000117593 to 0.000117593

Date: Wed Nov 07 23:23:40 2018
Total elapsed time: 321.208 seconds.

tnom = 27
temp = 27
method = modified trap
totiter = 972926
traniter = 972893
tranpoints = 250975
accept = 173420
rejected = 77556
matrix size = 111
fillins = 158
solver = Normal
Thread vector: 425.5/272.8[4] 91.7/63.9[4] 23.8/42.0[1] 3.0/15.9[1]  2592/500
Matrix Compiler1: 20.97 KB object code size  17.8/13.5/[10.9]
Matrix Compiler2: 13.97 KB object code size  6.7/77.6/[4.6]

