Circuit: * C:\Users\subha\OneDrive\Documents\GitHub\PMIC_Final_Project_Fall_Buck_Converter\Buck_Regulator_Schematic.asc

Ignoring BSIM parameter XL
Ignoring BSIM parameter XW
Ignoring BSIM parameter XL
Ignoring BSIM parameter XW
Ignoring BSIM parameter XL
Ignoring BSIM parameter XW
Ignoring BSIM parameter XL
Ignoring BSIM parameter XW
Ignoring BSIM parameter XL
Ignoring BSIM parameter XW
Ignoring BSIM parameter XL
Ignoring BSIM parameter XW
C4: Increased Cpar to 1e-011
C3: Increased Cpar to 1e-011
C2: Increased Cpar to 1e-011
C1: Increased Cpar to 1e-011
Warning: Pd = 0 is less than W.
Warning: Ps = 0 is less than W.
Warning: Pd = 0 is less than W.
Warning: Ps = 0 is less than W.
Warning: Pd = 0 is less than W.
Warning: Ps = 0 is less than W.
Warning: Pd = 0 is less than W.
Warning: Ps = 0 is less than W.
Warning: Pd = 0 is less than W.
Warning: Ps = 0 is less than W.
Warning: Pd = 0 is less than W.
Warning: Ps = 0 is less than W.
Warning: Pd = 0 is less than W.
Warning: Ps = 0 is less than W.
Warning: Pd = 0 is less than W.
Warning: Ps = 0 is less than W.
Warning: Pd = 0 is less than W.
Warning: Ps = 0 is less than W.
Warning: Pd = 0 is less than W.
Warning: Ps = 0 is less than W.
Warning: Pd = 0 is less than W.
Warning: Ps = 0 is less than W.
Warning: Pd = 0 is less than W.
Warning: Ps = 0 is less than W.
Warning: Pd = 0 is less than W.
Warning: Ps = 0 is less than W.
Direct Newton iteration for .op point succeeded.

Date: Sat Nov 03 21:48:37 2018
Total elapsed time: 95.080 seconds.

tnom = 27
temp = 27
method = modified trap
totiter = 613409
traniter = 613374
tranpoints = 178439
accept = 125116
rejected = 53323
matrix size = 56
fillins = 107
solver = Normal
Thread vector: 155.3/168.7[3] 31.5/26.9[3] 6.2/15.9[1] 1.5/7.4[1]  2592/500
Matrix Compiler1: 11.37 KB object code size  6.8/5.9/[4.2]
Matrix Compiler2: 7.28 KB object code size  2.3/3.9/[2.0]

