Circuit: * C:\Users\subha\OneDrive\Documents\GitHub\PMIC_Final_Project_Fall_Buck_Converter\Compensator.asc

WARNING: Less than two connections to node VDD.  This node is used by V1.

Date: Mon Nov 05 02:23:25 2018
Total elapsed time: 0.170 seconds.

tnom = 27
temp = 27
method = trap
totiter = 0
traniter = 0
tranpoints = 0
accept = 0
rejected = 0
matrix size = 29
fillins = 25
solver = Normal

