Circuit: * C:\Users\subha\OneDrive\Documents\GitHub\PMIC_Final_Project_Fall_Buck_Converter\Dead_Time_Control.asc

Ignoring BSIM parameter XL
Ignoring BSIM parameter XW
Ignoring BSIM parameter XL
Ignoring BSIM parameter XW
Warning: Pd = 0 is less than W.
Warning: Ps = 0 is less than W.
Warning: Pd = 0 is less than W.
Warning: Ps = 0 is less than W.
Warning: Pd = 0 is less than W.
Warning: Ps = 0 is less than W.
Warning: Pd = 0 is less than W.
Warning: Ps = 0 is less than W.
Warning: Pd = 0 is less than W.
Warning: Ps = 0 is less than W.
Warning: Pd = 0 is less than W.
Warning: Ps = 0 is less than W.
.OP point found by inspection.

Date: Sat Nov 10 17:41:10 2018
Total elapsed time: 0.704 seconds.

tnom = 27
temp = 27
method = modified trap
totiter = 4182
traniter = 4182
tranpoints = 1695
accept = 1488
rejected = 207
matrix size = 12
fillins = 0
solver = Normal
Matrix Compiler1: 554 bytes object code size  0.6/0.4/[0.3]
Matrix Compiler2: off  [0.3]/0.6/0.4

