Circuit: * C:\Users\subha\OneDrive\Documents\GitHub\PMIC_Final_Project_Fall_Buck_Converter\Scribble.asc

Ignoring BSIM parameter XL
Ignoring BSIM parameter XW
Ignoring BSIM parameter XL
Ignoring BSIM parameter XW
Warning: Pd = 0 is less than W.
Warning: Ps = 0 is less than W.
Warning: Pd = 0 is less than W.
Warning: Ps = 0 is less than W.
Warning: Pd = 0 is less than W.
Warning: Ps = 0 is less than W.
Warning: Pd = 0 is less than W.
Warning: Ps = 0 is less than W.
Warning: Pd = 0 is less than W.
Warning: Ps = 0 is less than W.
Direct Newton iteration for .op point succeeded.
Heightened Def Con from 4.25e-007 to 4.25e-007
Heightened Def Con from 9.885e-007 to 9.885e-007
Heightened Def Con from 1.1135e-006 ++++++++to 1.1135e-006
Heightened Def Con from 1.3635e-006 to 1.3635e-006
Heightened Def Con from 1.55e-006 to 1.55e-006
Heightened Def Con from 1.925e-006 ++to 1.925e-006
Heightened Def Con from 1.925e-006 to 1.925e-006
Heightened Def Con from 1.27974e-005 to 1.27974e-005

Date: Sat Nov 03 16:13:55 2018
Total elapsed time: 383.213 seconds.

tnom = 27
temp = 27
method = modified trap
totiter = 2566265
traniter = 2566235
tranpoints = 1282798
accept = 1282293
rejected = 523
matrix size = 19
fillins = 10
solver = Normal
Matrix Compiler1: 2.22 KB object code size  1.5/1.1/[0.7]
Matrix Compiler2: off  [0.6]/1.0/0.7

