Circuit: * C:\Users\subha\OneDrive\Documents\GitHub\PMIC_Final_Project_Fall_Buck_Converter\tb_analog_mux.asc

Ignoring BSIM parameter XL
Ignoring BSIM parameter XW
Ignoring BSIM parameter XL
Ignoring BSIM parameter XW
Warning: Pd = 0 is less than W.
Warning: Ps = 0 is less than W.
Warning: Pd = 0 is less than W.
Warning: Ps = 0 is less than W.
Direct Newton iteration for .op point succeeded.

Date: Thu Nov 08 02:45:08 2018
Total elapsed time: 23.612 seconds.

tnom = 27
temp = 27
method = modified trap
totiter = 413789
traniter = 413763
tranpoints = 160059
accept = 96089
rejected = 63970
matrix size = 12
fillins = 4
solver = Normal
Matrix Compiler1: 850 bytes object code size  0.8/0.5/[0.4]
Matrix Compiler2: off  [0.4]/0.8/0.5

