Circuit: * C:\Users\subha\OneDrive\Documents\GitHub\PMIC_Final_Project_Fall_Buck_Converter\tb_bandgap.asc

Ignoring BSIM parameter XL
Ignoring BSIM parameter XW
Ignoring BSIM parameter XL
Ignoring BSIM parameter XW
Warning: Pd = 0 is less than W.
Warning: Ps = 0 is less than W.
Warning: Pd = 0 is less than W.
Warning: Ps = 0 is less than W.
Warning: Pd = 0 is less than W.
Warning: Ps = 0 is less than W.
Warning: Pd = 0 is less than W.
Warning: Ps = 0 is less than W.
.OP point found by inspection.

vreference: v(vref)=0.359272 at 4.9e-005


Date: Tue Nov 06 21:03:21 2018
Total elapsed time: 0.931 seconds.

tnom = 27
temp = 27
method = modified trap
totiter = 2612
traniter = 2612
tranpoints = 1219
accept = 1177
rejected = 42
matrix size = 47
fillins = 8
solver = Normal
Matrix Compiler1: 4.13 KB object code size  2.7/2.1/[1.5]
Matrix Compiler2: 4.31 KB object code size  1.2/2.2/[1.2]

