Circuit: * C:\Users\subha\OneDrive\Documents\GitHub\PMIC_Final_Project_Fall_Buck_Converter\tb_Comparator.asc

Ignoring BSIM parameter XL
Ignoring BSIM parameter XW
Ignoring BSIM parameter XL
Ignoring BSIM parameter XW
Warning: Pd = 0 is less than W.
Warning: Ps = 0 is less than W.
Warning: Pd = 0 is less than W.
Warning: Ps = 0 is less than W.
Warning: Pd = 0 is less than W.
Warning: Ps = 0 is less than W.
Warning: Pd = 0 is less than W.
Warning: Ps = 0 is less than W.
Warning: Pd = 0 is less than W.
Warning: Ps = 0 is less than W.
Warning: Pd = 0 is less than W.
Warning: Ps = 0 is less than W.
.OP point found by inspection.

Date: Sat Nov 03 21:32:18 2018
Total elapsed time: 4.410 seconds.

tnom = 27
temp = 27
method = modified trap
totiter = 44983
traniter = 44983
tranpoints = 11176
accept = 8415
rejected = 2761
matrix size = 31
fillins = 30
solver = Normal
Thread vector: 104.0/57.0[2] 20.8/12.6[2] 4.8/7.0[1] 1.1/3.9[1]  2592/500
Matrix Compiler1: 4.69 KB object code size  3.7/2.1/[1.5]
Matrix Compiler2: 3.77 KB object code size  1.2/1.9/[1.2]

