Circuit: * C:\Users\subha\OneDrive\Documents\GitHub\PMIC_Final_Project_Fall_Buck_Converter\tb_Digital_Circuits.asc

Ignoring BSIM parameter XL
Ignoring BSIM parameter XW
Ignoring BSIM parameter XL
Ignoring BSIM parameter XW
Warning: Pd = 0 is less than W.
Warning: Ps = 0 is less than W.
Warning: Pd = 0 is less than W.
Warning: Ps = 0 is less than W.
Warning: Pd = 0 is less than W.
Warning: Ps = 0 is less than W.
Warning: Pd = 0 is less than W.
Warning: Ps = 0 is less than W.
Warning: Pd = 0 is less than W.
Warning: Ps = 0 is less than W.
Warning: Pd = 0 is less than W.
Warning: Ps = 0 is less than W.
Warning: Pd = 0 is less than W.
Warning: Ps = 0 is less than W.
.OP point found by inspection.

Date: Tue Nov 06 00:34:48 2018
Total elapsed time: 2.777 seconds.

tnom = 27
temp = 27
method = modified trap
totiter = 25564
traniter = 25564
tranpoints = 8754
accept = 6761
rejected = 1993
matrix size = 23
fillins = 8
solver = Normal
Matrix Compiler1: 2.31 KB object code size  1.6/1.2/[0.8]
Matrix Compiler2: 2.45 KB object code size  0.6/0.8/[0.6]

