Circuit: * C:\Users\subha\OneDrive\Documents\GitHub\PMIC_Final_Project_Fall_Buck_Converter\tb_error_amplifier_tran.asc

Ignoring BSIM parameter XL
Ignoring BSIM parameter XW
Ignoring BSIM parameter XL
Ignoring BSIM parameter XW
Warning: Pd = 0 is less than W.
Warning: Ps = 0 is less than W.
Warning: Pd = 0 is less than W.
Warning: Ps = 0 is less than W.
Warning: Pd = 0 is less than W.
Warning: Ps = 0 is less than W.
Warning: Pd = 0 is less than W.
Warning: Ps = 0 is less than W.
Direct Newton iteration for .op point succeeded.

Date: Sat Nov 03 13:05:14 2018
Total elapsed time: 4.085 seconds.

tnom = 27
temp = 27
method = modified trap
totiter = 41003
traniter = 40989
tranpoints = 20274
accept = 20210
rejected = 64
matrix size = 20
fillins = 10
solver = Normal
Matrix Compiler1: 2.33 KB object code size  1.5/1.2/[0.8]
Matrix Compiler2: off  [0.6]/1.1/0.7

