Circuit: * C:\Users\subha\OneDrive\Documents\GitHub\PMIC_Final_Project_Fall_Buck_Converter\tb_error_amplifier_tran.asc

Ignoring BSIM parameter XL
Ignoring BSIM parameter XW
Ignoring BSIM parameter XL
Ignoring BSIM parameter XW
Warning: Pd = 0 is less than W.
Warning: Ps = 0 is less than W.
Warning: Pd = 0 is less than W.
Warning: Ps = 0 is less than W.
Warning: Pd = 0 is less than W.
Warning: Ps = 0 is less than W.
Warning: Pd = 0 is less than W.
Warning: Ps = 0 is less than W.
Direct Newton iteration for .op point succeeded.

Date: Tue Oct 30 22:03:41 2018
Total elapsed time: 31.566 seconds.

tnom = 27
temp = 27
method = modified trap
totiter = 200048
traniter = 200034
tranpoints = 100018
accept = 100018
rejected = 0
matrix size = 21
fillins = 14
solver = Normal
Matrix Compiler1: 2.72 KB object code size  1.8/1.2/[0.9]
Matrix Compiler2: 2.34 KB object code size  0.7/1.2/[0.7]

