Circuit: * C:\Users\subha\OneDrive\Documents\GitHub\PMIC_Final_Project_Fall_Buck_Converter\tb_error_amplifier_tran.asc

Ignoring BSIM parameter XL
Ignoring BSIM parameter XW
Ignoring BSIM parameter XL
Ignoring BSIM parameter XW
Warning: Pd = 0 is less than W.
Warning: Ps = 0 is less than W.
Warning: Pd = 0 is less than W.
Warning: Ps = 0 is less than W.
Warning: Pd = 0 is less than W.
Warning: Ps = 0 is less than W.
Warning: Pd = 0 is less than W.
Warning: Ps = 0 is less than W.
Warning: Pd = 0 is less than W.
Warning: Ps = 0 is less than W.
.OP point found by inspection.
Heightened Def Con from 3.861e-006 to 3.86102e-006
Heightened Def Con from 4.236e-006 ++++++to 4.236e-006
Heightened Def Con from 4.8e-006 to 4.8e-006
Heightened Def Con from 4.861e-006 to 4.8612e-006
Heightened Def Con from 4.986e-006 to 4.986e-006
Heightened Def Con from 5.175e-006 to 5.175e-006
Heightened Def Con from 5.175e-006 to 5.175e-006
Heightened Def Con from 5.55e-006 to 5.55e-006
Heightened Def Con from 6.175e-006 to 6.1752e-006
Heightened Def Con from 6.425e-006 +++++++++++to 6.425e-006
Heightened Def Con from 6.925e-006 to 6.925e-006
Heightened Def Con from 7.05e-006 to 7.05e-006
Heightened Def Con from 7.425e-006 to 7.425e-006
Heightened Def Con from 8.05e-006 +++++++++to 8.05e-006
Heightened Def Con from 8.3e-006 to 8.3e-006
Heightened Def Con from 8.8e-006 to 8.8e-006
Heightened Def Con from 9.861e-006 to 9.861e-006
Heightened Def Con from 1.03e-005 to 1.03e-005
Heightened Def Con from 1.08e-005 to 1.08e-005
Heightened Def Con from 1.1361e-005 +++++++++++to 1.1361e-005
Heightened Def Con from 1.205e-005 to 1.205e-005
Heightened Def Con from 1.2236e-005 +++++++++to 1.2236e-005
Heightened Def Con from 1.2486e-005 to 1.2486e-005
Heightened Def Con from 1.2736e-005 +++++++++to 1.2736e-005
Heightened Def Con from 1.2986e-005 to 1.2986e-005
Heightened Def Con from 1.305e-005 to 1.305e-005
Heightened Def Con from 1.3175e-005 to 1.3175e-005
Heightened Def Con from 1.355e-005 to 1.355e-005
Heightened Def Con from 1.4111e-005 to 1.4111e-005
Heightened Def Con from 1.4175e-005 to 1.4175e-005
Heightened Def Con from 1.4361e-005 to 1.4361e-005
Heightened Def Con from 1.4736e-005 to 1.4736e-005
Heightened Def Con from 1.6111e-005 to 1.6111e-005
Heightened Def Con from 1.6175e-005 to 1.6175e-005
Heightened Def Con from 1.6675e-005 to 1.6675e-005
Heightened Def Con from 1.6861e-005 to 1.6861e-005
Heightened Def Con from 1.7675e-005 to 1.7675e-005
Heightened Def Con from 1.8986e-005 to 1.89862e-005
Heightened Def Con from 1.9236e-005 to 1.9236e-005
Heightened Def Con from 2.0425e-005 to 2.0425e-005
Heightened Def Con from 2.0611e-005 to 2.06112e-005
Heightened Def Con from 2.12361e-005 to 2.12361e-005

Date: Sat Nov 03 15:16:39 2018
Total elapsed time: 56.473 seconds.

tnom = 27
temp = 27
method = modified trap
totiter = 446004
traniter = 446004
tranpoints = 221158
accept = 220313
rejected = 942
matrix size = 21
fillins = 12
solver = Normal
Matrix Compiler1: 2.38 KB object code size  1.7/1.3/[0.9]
Matrix Compiler2: 2.17 KB object code size  0.6/0.9/[0.5]

