Circuit: * C:\Users\subha\OneDrive\Documents\GitHub\PMIC_Final_Project_Fall_Buck_Converter\tb_oscillator.asc

Ignoring BSIM parameter XL
Ignoring BSIM parameter XW
Ignoring BSIM parameter XL
Ignoring BSIM parameter XW
Warning: Pd = 0 is less than W.
Warning: Ps = 0 is less than W.
Warning: Pd = 0 is less than W.
Warning: Ps = 0 is less than W.
Warning: Pd = 0 is less than W.
Warning: Ps = 0 is less than W.
Warning: Pd = 0 is less than W.
Warning: Ps = 0 is less than W.
Warning: Pd = 0 is less than W.
Warning: Ps = 0 is less than W.
Warning: Pd = 0 is less than W.
Warning: Ps = 0 is less than W.
Warning: Pd = 0 is less than W.
Warning: Ps = 0 is less than W.
Warning: Pd = 0 is less than W.
Warning: Ps = 0 is less than W.
Warning: Pd = 0 is less than W.
Warning: Ps = 0 is less than W.
Warning: Pd = 0 is less than W.
Warning: Ps = 0 is less than W.
Warning: Pd = 0 is less than W.
Warning: Ps = 0 is less than W.
.OP point found by inspection.

Date: Wed Nov 07 23:35:40 2018
Total elapsed time: 57.887 seconds.

tnom = 27
temp = 27
method = modified trap
totiter = 430065
traniter = 430065
tranpoints = 203013
accept = 201846
rejected = 1167
matrix size = 24
fillins = 36
solver = Normal
Thread vector: 111.2/85.1[3] 18.6/23.0[1] 4.6/8.2[1] 0.8/5.4[1]  2592/500
Matrix Compiler1: 5.06 KB object code size  3.4/2.5/[1.5]
Matrix Compiler2: 3.35 KB object code size  0.9/1.4/[0.9]

