Circuit: * C:\Users\subha\OneDrive\Documents\GitHub\PMIC_Final_Project_Fall_Buck_Converter\tb_oscillator.asc

Ignoring BSIM parameter XL
Ignoring BSIM parameter XW
Ignoring BSIM parameter XL
Ignoring BSIM parameter XW
Warning: Pd = 0 is less than W.
Warning: Ps = 0 is less than W.
Warning: Pd = 0 is less than W.
Warning: Ps = 0 is less than W.
Warning: Pd = 0 is less than W.
Warning: Ps = 0 is less than W.
Warning: Pd = 0 is less than W.
Warning: Ps = 0 is less than W.
Warning: Pd = 0 is less than W.
Warning: Ps = 0 is less than W.
Warning: Pd = 0 is less than W.
Warning: Ps = 0 is less than W.
Warning: Pd = 0 is less than W.
Warning: Ps = 0 is less than W.
Direct Newton iteration for .op point succeeded.

Date: Mon Oct 22 09:44:53 2018
Total elapsed time: 40.996 seconds.

tnom = 27
temp = 27
method = modified trap
totiter = 433360
traniter = 433319
tranpoints = 209506
accept = 206407
rejected = 3099
matrix size = 23
fillins = 10
solver = Normal
Matrix Compiler1: 2.12 KB object code size  1.6/1.1/[0.7]
Matrix Compiler2: off  [0.6]/1.3/0.7

