Circuit: * C:\Users\subha\OneDrive\Documents\GitHub\PMIC_Final_Project_Fall_Buck_Converter\tb_oscillator.asc

Ignoring BSIM parameter XL
Ignoring BSIM parameter XW
Ignoring BSIM parameter XL
Ignoring BSIM parameter XW
Warning: Pd = 0 is less than W.
Warning: Ps = 0 is less than W.
Warning: Pd = 0 is less than W.
Warning: Ps = 0 is less than W.
Warning: Pd = 0 is less than W.
Warning: Ps = 0 is less than W.
Warning: Pd = 0 is less than W.
Warning: Ps = 0 is less than W.
Warning: Pd = 0 is less than W.
Warning: Ps = 0 is less than W.
Warning: Pd = 0 is less than W.
Warning: Ps = 0 is less than W.
Warning: Pd = 0 is less than W.
Warning: Ps = 0 is less than W.
Warning: Pd = 0 is less than W.
Warning: Ps = 0 is less than W.
Warning: Pd = 0 is less than W.
Warning: Ps = 0 is less than W.
Warning: Pd = 0 is less than W.
Warning: Ps = 0 is less than W.
Warning: Pd = 0 is less than W.
Warning: Ps = 0 is less than W.
.OP point found by inspection.

Date: Wed Nov 07 21:07:07 2018
Total elapsed time: 9.834 seconds.

tnom = 27
temp = 27
method = modified trap
totiter = 81910
traniter = 81910
tranpoints = 25737
accept = 24004
rejected = 1733
matrix size = 34
fillins = 54
solver = Normal
Thread vector: 124.8/100.7[3] 22.5/13.6[3] 7.9/6.0[3] 1.1/5.5[1]  2592/500
Matrix Compiler1: 7.19 KB object code size  4.0/2.9/[2.1]
Matrix Compiler2: off  [1.3]/2.1/1.6

