Circuit: * C:\Users\subha\OneDrive\Documents\GitHub\PMIC_Final_Project_Fall_Buck_Converter\tb_oscillator.asc

Ignoring BSIM parameter XL
Ignoring BSIM parameter XW
Ignoring BSIM parameter XL
Ignoring BSIM parameter XW
Warning: Pd = 0 is less than W.
Warning: Ps = 0 is less than W.
Warning: Pd = 0 is less than W.
Warning: Ps = 0 is less than W.
Warning: Pd = 0 is less than W.
Warning: Ps = 0 is less than W.
Warning: Pd = 0 is less than W.
Warning: Ps = 0 is less than W.
Warning: Pd = 0 is less than W.
Warning: Ps = 0 is less than W.
Warning: Pd = 0 is less than W.
Warning: Ps = 0 is less than W.
Warning: Pd = 0 is less than W.
Warning: Ps = 0 is less than W.
Warning: Pd = 0 is less than W.
Warning: Ps = 0 is less than W.
Warning: Pd = 0 is less than W.
Warning: Ps = 0 is less than W.
Warning: Pd = 0 is less than W.
Warning: Ps = 0 is less than W.
Warning: Pd = 0 is less than W.
Warning: Ps = 0 is less than W.
.OP point found by inspection.

Date: Sat Nov 03 21:05:26 2018
Total elapsed time: 5.701 seconds.

tnom = 27
temp = 27
method = modified trap
totiter = 54076
traniter = 54076
tranpoints = 11146
accept = 8245
rejected = 2901
matrix size = 34
fillins = 54
solver = Normal
Thread vector: 123.5/87.5[3] 23.8/9.6[3] 8.0/4.0[3] 0.9/11.9[1]  2592/500
Matrix Compiler1: 7.19 KB object code size  7.7/3.8/[2.2]
Matrix Compiler2: 4.60 KB object code size  1.5/2.4/[1.4]

