Circuit: * C:\Users\subha\OneDrive\Documents\GitHub\PMIC_Final_Project_Fall_Buck_Converter\tb_oscillator.asc

Ignoring BSIM parameter XL
Ignoring BSIM parameter XW
Ignoring BSIM parameter XL
Ignoring BSIM parameter XW
Warning: Pd = 0 is less than W.
Warning: Ps = 0 is less than W.
Warning: Pd = 0 is less than W.
Warning: Ps = 0 is less than W.
Warning: Pd = 0 is less than W.
Warning: Ps = 0 is less than W.
Warning: Pd = 0 is less than W.
Warning: Ps = 0 is less than W.
Warning: Pd = 0 is less than W.
Warning: Ps = 0 is less than W.
.OP point found by inspection.

Date: Sun Oct 21 22:22:21 2018
Total elapsed time: 3.525 seconds.

tnom = 27
temp = 27
method = modified trap
totiter = 48497
traniter = 48497
tranpoints = 19147
accept = 17375
rejected = 1772
matrix size = 22
fillins = 10
solver = Normal
Matrix Compiler1: 2.07 KB object code size  1.6/1.1/[0.8]
Matrix Compiler2: 2.11 KB object code size  0.7/1.1/[0.6]

