Circuit: * C:\Users\subha\OneDrive\Documents\GitHub\PMIC_Final_Project_Fall_Buck_Converter\tb_oscillator.asc

Ignoring BSIM parameter XL
Ignoring BSIM parameter XW
Ignoring BSIM parameter XL
Ignoring BSIM parameter XW
Warning: Pd = 0 is less than W.
Warning: Ps = 0 is less than W.
Warning: Pd = 0 is less than W.
Warning: Ps = 0 is less than W.
Warning: Pd = 0 is less than W.
Warning: Ps = 0 is less than W.
Warning: Pd = 0 is less than W.
Warning: Ps = 0 is less than W.
Warning: Pd = 0 is less than W.
Warning: Ps = 0 is less than W.
Warning: Pd = 0 is less than W.
Warning: Ps = 0 is less than W.
.OP point found by inspection.

Date: Sun Oct 21 17:34:57 2018
Total elapsed time: 0.571 seconds.

tnom = 27
temp = 27
method = modified trap
totiter = 2309
traniter = 2309
tranpoints = 1091
accept = 1076
rejected = 15
matrix size = 21
fillins = 10
solver = Normal
Matrix Compiler1: 2.09 KB object code size  1.5/1.1/[0.8]
Matrix Compiler2: 2.11 KB object code size  0.7/1.1/[0.6]

