Circuit: * C:\Users\subha\OneDrive\Documents\GitHub\PMIC_Final_Project_Fall_Buck_Converter\tb_oscillator.asc

Ignoring BSIM parameter XL
Ignoring BSIM parameter XW
Ignoring BSIM parameter XL
Ignoring BSIM parameter XW
Warning: Pd = 0 is less than W.
Warning: Ps = 0 is less than W.
Warning: Pd = 0 is less than W.
Warning: Ps = 0 is less than W.
Warning: Pd = 0 is less than W.
Warning: Ps = 0 is less than W.
Warning: Pd = 0 is less than W.
Warning: Ps = 0 is less than W.
Warning: Pd = 0 is less than W.
Warning: Ps = 0 is less than W.
Warning: Pd = 0 is less than W.
Warning: Ps = 0 is less than W.
Warning: Pd = 0 is less than W.
Warning: Ps = 0 is less than W.
Warning: Pd = 0 is less than W.
Warning: Ps = 0 is less than W.
Warning: Pd = 0 is less than W.
Warning: Ps = 0 is less than W.
Warning: Pd = 0 is less than W.
Warning: Ps = 0 is less than W.
Warning: Pd = 0 is less than W.
Warning: Ps = 0 is less than W.
.OP point found by inspection.

Date: Fri Nov 09 09:00:27 2018
Total elapsed time: 80.047 seconds.

tnom = 27
temp = 27
method = modified trap
totiter = 430065
traniter = 430065
tranpoints = 203013
accept = 201846
rejected = 1167
matrix size = 24
fillins = 36
solver = Normal
Thread vector: 133.2/91.6[3] 22.6/10.0[3] 3.9/33.1[1] 0.9/6.2[1]  2592/500
Matrix Compiler1: 5.06 KB object code size  3.2/2.2/[1.7]
Matrix Compiler2: off  [1.0]/1.7/1.1

