Circuit: * C:\Users\subha\OneDrive\Documents\GitHub\PMIC_Final_Project_Fall_Buck_Converter\tb_oscillator.asc

Ignoring BSIM parameter XL
Ignoring BSIM parameter XW
Ignoring BSIM parameter XL
Ignoring BSIM parameter XW
Warning: Pd = 0 is less than W.
Warning: Ps = 0 is less than W.
Warning: Pd = 0 is less than W.
Warning: Ps = 0 is less than W.
Warning: Pd = 0 is less than W.
Warning: Ps = 0 is less than W.
Warning: Pd = 0 is less than W.
Warning: Ps = 0 is less than W.
Warning: Pd = 0 is less than W.
Warning: Ps = 0 is less than W.
Direct Newton iteration for .op point succeeded.
Heightened Def Con from 1.05633e-007 to 1.06133e-007

Date: Sun Oct 21 19:32:27 2018
Total elapsed time: 0.589 seconds.

tnom = 27
temp = 27
method = modified trap
totiter = 2726
traniter = 2685
tranpoints = 1192
accept = 1153
rejected = 40
matrix size = 23
fillins = 10
solver = Normal
Matrix Compiler1: 2.08 KB object code size  1.6/1.2/[0.8]
Matrix Compiler2: 2.15 KB object code size  0.7/1.2/[0.6]

