Circuit: * C:\Users\subha\OneDrive\Documents\GitHub\PMIC_Final_Project_Fall_Buck_Converter\tb_oscillator.asc

Ignoring BSIM parameter XL
Ignoring BSIM parameter XW
Ignoring BSIM parameter XL
Ignoring BSIM parameter XW
Warning: Pd = 0 is less than W.
Warning: Ps = 0 is less than W.
Warning: Pd = 0 is less than W.
Warning: Ps = 0 is less than W.
Warning: Pd = 0 is less than W.
Warning: Ps = 0 is less than W.
Warning: Pd = 0 is less than W.
Warning: Ps = 0 is less than W.
Warning: Pd = 0 is less than W.
Warning: Ps = 0 is less than W.
Warning: Pd = 0 is less than W.
Warning: Ps = 0 is less than W.
Warning: Pd = 0 is less than W.
Warning: Ps = 0 is less than W.
Warning: Pd = 0 is less than W.
Warning: Ps = 0 is less than W.
Warning: Pd = 0 is less than W.
Warning: Ps = 0 is less than W.
Warning: Pd = 0 is less than W.
Warning: Ps = 0 is less than W.
Warning: Pd = 0 is less than W.
Warning: Ps = 0 is less than W.
.OP point found by inspection.

Date: Wed Oct 24 22:11:53 2018
Total elapsed time: 161.242 seconds.

tnom = 27
temp = 27
method = modified trap
totiter = 412776
traniter = 412776
tranpoints = 201361
accept = 200734
rejected = 627
matrix size = 30
fillins = 46
solver = Normal
Thread vector: 142.2/73.6[2] 39.0/19.8[2] 7.2/4.3[2] 1.1/7.5[1]  2592/500
Matrix Compiler1: 6.92 KB object code size  10.3/7.0/[4.1]
Matrix Compiler2: 4.03 KB object code size  4.4/5.1/[1.9]

