Circuit: * C:\Users\subha\OneDrive\Documents\GitHub\PMIC_Final_Project_Fall_Buck_Converter\tb_oscillator.asc

Ignoring BSIM parameter XL
Ignoring BSIM parameter XW
Ignoring BSIM parameter XL
Ignoring BSIM parameter XW
Warning: Pd = 0 is less than W.
Warning: Ps = 0 is less than W.
Warning: Pd = 0 is less than W.
Warning: Ps = 0 is less than W.
Warning: Pd = 0 is less than W.
Warning: Ps = 0 is less than W.
Warning: Pd = 0 is less than W.
Warning: Ps = 0 is less than W.
Warning: Pd = 0 is less than W.
Warning: Ps = 0 is less than W.
Warning: Pd = 0 is less than W.
Warning: Ps = 0 is less than W.
Warning: Pd = 0 is less than W.
Warning: Ps = 0 is less than W.
Warning: Pd = 0 is less than W.
Warning: Ps = 0 is less than W.
Warning: Pd = 0 is less than W.
Warning: Ps = 0 is less than W.
Warning: Pd = 0 is less than W.
Warning: Ps = 0 is less than W.
Warning: Pd = 0 is less than W.
Warning: Ps = 0 is less than W.
.OP point found by inspection.

Date: Sun Oct 28 11:00:09 2018
Total elapsed time: 83.503 seconds.

tnom = 27
temp = 27
method = modified trap
totiter = 421290
traniter = 421290
tranpoints = 201992
accept = 201222
rejected = 770
matrix size = 34
fillins = 54
solver = Normal
Thread vector: 126.6/97.2[3] 23.1/9.9[3] 6.3/4.3[3] 1.2/2.3[1]  2592/500
Matrix Compiler1: 7.19 KB object code size  3.9/4.5/[2.2]
Matrix Compiler2: off  [1.3]/3.4/1.6

