Circuit: * C:\Users\subha\OneDrive\Documents\GitHub\PMIC_Final_Project_Fall_Buck_Converter\tb_oscillator.asc

Ignoring BSIM parameter XL
Ignoring BSIM parameter XW
Ignoring BSIM parameter XL
Ignoring BSIM parameter XW
Warning: Pd = 0 is less than W.
Warning: Ps = 0 is less than W.
Warning: Pd = 0 is less than W.
Warning: Ps = 0 is less than W.
Warning: Pd = 0 is less than W.
Warning: Ps = 0 is less than W.
Warning: Pd = 0 is less than W.
Warning: Ps = 0 is less than W.
Warning: Pd = 0 is less than W.
Warning: Ps = 0 is less than W.
.OP point found by inspection.

Date: Sun Oct 21 16:55:23 2018
Total elapsed time: 0.401 seconds.

tnom = 27
temp = 27
method = modified trap
totiter = 2481
traniter = 2481
tranpoints = 1104
accept = 1086
rejected = 18
matrix size = 18
fillins = 8
solver = Normal
Matrix Compiler1: 1.85 KB object code size  1.3/0.9/[0.7]
Matrix Compiler2: 1.83 KB object code size  0.6/0.9/[0.5]

